Test document for practicing command line.
Learning git commands.
Creating repositories and test directories.
New line.
Practicing with branches in the GitHub desktop app.
